# RIV package for MODFLOW-2005 generated by Flopy 3.4.3
         9        53
         9         0 # stress period 1
         1         1         1          1000.0           125.0           995.0
         1         1         2          1000.0           125.0           995.0
         1         1         3          1000.0           125.0           995.0
         1         1         4          1000.0           125.0           995.0
         1         1         5          1000.0           125.0           995.0
         1         1         6          1000.0           125.0           995.0
         1         1         7          1000.0           125.0           995.0
         1         1         8          1000.0           125.0           995.0
         1         1         9          1000.0           125.0           995.0
