# OC package for MODFLOW-2005 generated by Flopy 3.4.3
HEAD PRINT FORMAT   0
HEAD SAVE UNIT    51
DRAWDOWN PRINT FORMAT   0
DRAWDOWN SAVE UNIT    52

period 1 step 1 
  print head
  print budget
  save head
  save budget
  save drawdown

