# PCG package for MODFLOW-2005 generated by Flopy 3.4.3
100 60 1 0
0.001 0.001 1.0 0 0 3 1.0 
