# RCH package for MODFLOW-2005 generated by Flopy 3.4.3
         3         0
         1        -1 # Stress period 1
INTERNAL               1   (9E15.6) -1 #rech_1                        
   1.000000E-04   1.000000E-04   1.000000E-04   1.000000E-04   1.000000E-04   1.000000E-04   1.000000E-04   1.000000E-04   1.000000E-04
   1.000000E-04   1.000000E-04   1.000000E-04   1.000000E-04   1.000000E-04   1.000000E-04   1.000000E-04   1.000000E-04   1.000000E-04
   1.000000E-04   1.000000E-04   1.000000E-04   1.000000E-04   1.000000E-04   1.000000E-04   1.000000E-04   1.000000E-04   1.000000E-04
   1.000000E-04   1.000000E-04   1.000000E-04   1.000000E-04   1.000000E-04   1.000000E-04   1.000000E-04   1.000000E-04   1.000000E-04
   1.000000E-04   1.000000E-04   1.000000E-04   1.000000E-04   1.000000E-04   1.000000E-04   1.000000E-04   1.000000E-04   1.000000E-04
   1.000000E-04   1.000000E-04   1.000000E-04   1.000000E-04   1.000000E-04   1.000000E-04   1.000000E-04   1.000000E-04   1.000000E-04
   1.000000E-04   1.000000E-04   1.000000E-04   1.000000E-04   1.000000E-04   1.000000E-04   1.000000E-04   1.000000E-04   1.000000E-04
   1.000000E-04   1.000000E-04   1.000000E-04   1.000000E-04   1.000000E-04   1.000000E-04   1.000000E-04   1.000000E-04   1.000000E-04
   1.000000E-04   1.000000E-04   1.000000E-04   1.000000E-04   1.000000E-04   1.000000E-04   1.000000E-04   1.000000E-04   1.000000E-04
   1.000000E-04   1.000000E-04   1.000000E-04   1.000000E-04   1.000000E-04   1.000000E-04   1.000000E-04   1.000000E-04   1.000000E-04
   1.000000E-04   1.000000E-04   1.000000E-04   1.000000E-04   1.000000E-04   1.000000E-04   1.000000E-04   1.000000E-04   1.000000E-04
   1.000000E-04   1.000000E-04   1.000000E-04   1.000000E-04   1.000000E-04   1.000000E-04   1.000000E-04   1.000000E-04   1.000000E-04
   1.000000E-04   1.000000E-04   1.000000E-04   1.000000E-04   1.000000E-04   1.000000E-04   1.000000E-04   1.000000E-04   1.000000E-04
   1.000000E-04   1.000000E-04   1.000000E-04   1.000000E-04   1.000000E-04   1.000000E-04   1.000000E-04   1.000000E-04   1.000000E-04
   1.000000E-04   1.000000E-04   1.000000E-04   1.000000E-04   1.000000E-04   1.000000E-04   1.000000E-04   1.000000E-04   1.000000E-04
   1.000000E-04   1.000000E-04   1.000000E-04   1.000000E-04   1.000000E-04   1.000000E-04   1.000000E-04   1.000000E-04   1.000000E-04
   1.000000E-04   1.000000E-04   1.000000E-04   1.000000E-04   1.000000E-04   1.000000E-04   1.000000E-04   1.000000E-04   1.000000E-04
   1.000000E-04   1.000000E-04   1.000000E-04   1.000000E-04   1.000000E-04   1.000000E-04   1.000000E-04   1.000000E-04   1.000000E-04
   1.000000E-04   1.000000E-04   1.000000E-04   1.000000E-04   1.000000E-04   1.000000E-04   1.000000E-04   1.000000E-04   1.000000E-04
   1.000000E-04   1.000000E-04   1.000000E-04   1.000000E-04   1.000000E-04   1.000000E-04   1.000000E-04   1.000000E-04   1.000000E-04
   1.000000E-04   1.000000E-04   1.000000E-04   1.000000E-04   1.000000E-04   1.000000E-04   1.000000E-04   1.000000E-04   1.000000E-04
   1.000000E-04   1.000000E-04   1.000000E-04   1.000000E-04   1.000000E-04   1.000000E-04   1.000000E-04   1.000000E-04   1.000000E-04
   1.000000E-04   1.000000E-04   1.000000E-04   1.000000E-04   1.000000E-04   1.000000E-04   1.000000E-04   1.000000E-04   1.000000E-04
   1.000000E-04   1.000000E-04   1.000000E-04   1.000000E-04   1.000000E-04   1.000000E-04   1.000000E-04   1.000000E-04   1.000000E-04
   1.000000E-04   1.000000E-04   1.000000E-04   1.000000E-04   1.000000E-04   1.000000E-04   1.000000E-04   1.000000E-04   1.000000E-04
   1.000000E-04   1.000000E-04   1.000000E-04   1.000000E-04   1.000000E-04   1.000000E-04   1.000000E-04   1.000000E-04   1.000000E-04
   1.000000E-04   1.000000E-04   1.000000E-04   1.000000E-04   1.000000E-04   1.000000E-04   1.000000E-04   1.000000E-04   1.000000E-04
   1.000000E-04   1.000000E-04   1.000000E-04   1.000000E-04   1.000000E-04   1.000000E-04   1.000000E-04   1.000000E-04   1.000000E-04
   1.000000E-04   1.000000E-04   1.000000E-04   1.000000E-04   1.000000E-04   1.000000E-04   1.000000E-04   1.000000E-04   1.000000E-04
   1.000000E-04   1.000000E-04   1.000000E-04   1.000000E-04   1.000000E-04   1.000000E-04   1.000000E-04   1.000000E-04   1.000000E-04
   1.000000E-04   1.000000E-04   1.000000E-04   1.000000E-04   1.000000E-04   1.000000E-04   1.000000E-04   1.000000E-04   1.000000E-04
   1.000000E-04   1.000000E-04   1.000000E-04   1.000000E-04   1.000000E-04   1.000000E-04   1.000000E-04   1.000000E-04   1.000000E-04
   1.000000E-04   1.000000E-04   1.000000E-04   1.000000E-04   1.000000E-04   1.000000E-04   1.000000E-04   1.000000E-04   1.000000E-04
   1.000000E-04   1.000000E-04   1.000000E-04   1.000000E-04   1.000000E-04   1.000000E-04   1.000000E-04   1.000000E-04   1.000000E-04
   1.000000E-04   1.000000E-04   1.000000E-04   1.000000E-04   1.000000E-04   1.000000E-04   1.000000E-04   1.000000E-04   1.000000E-04
   1.000000E-04   1.000000E-04   1.000000E-04   1.000000E-04   1.000000E-04   1.000000E-04   1.000000E-04   1.000000E-04   1.000000E-04
   1.000000E-04   1.000000E-04   1.000000E-04   1.000000E-04   1.000000E-04   1.000000E-04   1.000000E-04   1.000000E-04   1.000000E-04
   1.000000E-04   1.000000E-04   1.000000E-04   1.000000E-04   1.000000E-04   1.000000E-04   1.000000E-04   1.000000E-04   1.000000E-04
   1.000000E-04   1.000000E-04   1.000000E-04   1.000000E-04   1.000000E-04   1.000000E-04   1.000000E-04   1.000000E-04   1.000000E-04
   1.000000E-04   1.000000E-04   1.000000E-04   1.000000E-04   1.000000E-04   1.000000E-04   1.000000E-04   1.000000E-04   1.000000E-04
   1.000000E-04   1.000000E-04   1.000000E-04   1.000000E-04   1.000000E-04   1.000000E-04   1.000000E-04   1.000000E-04   1.000000E-04
   1.000000E-04   1.000000E-04   1.000000E-04   1.000000E-04   1.000000E-04   1.000000E-04   1.000000E-04   1.000000E-04   1.000000E-04
   1.000000E-04   1.000000E-04   1.000000E-04   1.000000E-04   1.000000E-04   1.000000E-04   1.000000E-04   1.000000E-04   1.000000E-04
   1.000000E-04   1.000000E-04   1.000000E-04   1.000000E-04   1.000000E-04   1.000000E-04   1.000000E-04   1.000000E-04   1.000000E-04
   1.000000E-04   1.000000E-04   1.000000E-04   1.000000E-04   1.000000E-04   1.000000E-04   1.000000E-04   1.000000E-04   1.000000E-04
   1.000000E-04   1.000000E-04   1.000000E-04   1.000000E-04   1.000000E-04   1.000000E-04   1.000000E-04   1.000000E-04   1.000000E-04
   1.000000E-04   1.000000E-04   1.000000E-04   1.000000E-04   1.000000E-04   1.000000E-04   1.000000E-04   1.000000E-04   1.000000E-04
   1.000000E-04   1.000000E-04   1.000000E-04   1.000000E-04   1.000000E-04   1.000000E-04   1.000000E-04   1.000000E-04   1.000000E-04
   1.000000E-04   1.000000E-04   1.000000E-04   1.000000E-04   1.000000E-04   1.000000E-04   1.000000E-04   1.000000E-04   1.000000E-04
   1.000000E-04   1.000000E-04   1.000000E-04   1.000000E-04   1.000000E-04   1.000000E-04   1.000000E-04   1.000000E-04   1.000000E-04
