# BAS6 package for MODFLOW-2005 generated by Flopy 3.4.3
FREE
INTERNAL               1     (9I10) -1 #ibound layer 1                
         1         1         1         1         1         1         1         1         1
         1         1         1         1         1         1         1         1         1
         1         1         1         1         1         1         1         1         1
         1         1         1         1         1         1         1         1         1
         1         1         1         1         1         1         1         1         1
         1         1         1         1         1         1         1         1         1
         1         1         1         1         1         1         1         1         1
         1         1         1         1         1         1         1         1         1
         1         1         1         1         1         1         1         1         1
         1         1         1         1         1         1         1         1         1
         1         1         1         1         1         1         1         1         1
         1         1         1         1         1         1         1         1         1
         1         1         1         1         1         1         1         1         1
         1         1         1         1         1         1         1         1         1
         1         1         1         1         1         1         1         1         1
         1         1         1         1         1         1         1         1         1
         1         1         1         1         1         1         1         1         1
         1         1         1         1         1         1         1         1         1
         1         1         1         1         1         1         1         1         1
         1         1         1         1         1         1         1         1         1
         1         1         1         1         1         1         1         1         1
         1         1         1         1         1         1         1         1         1
         1         1         1         1         1         1         1         1         1
         1         1         1         1         1         1         1         1         1
         1         1         1         1         1         1         1         1         1
         1         1         1         1         1         1         1         1         1
         1         1         1         1         1         1         1         1         1
         1         1         1         1         1         1         1         1         1
         1         1         1         1         1         1         1         1         1
         1         1         1         1         1         1         1         1         1
         1         1         1         1         1         1         1         1         1
         1         1         1         1         1         1         1         1         1
         1         1         1         1         1         1         1         1         1
         1         1         1         1         1         1         1         1         1
         1         1         1         1         1         1         1         1         1
         1         1         1         1         1         1         1         1         1
         1         1         1         1         1         1         1         1         1
         1         1         1         1         1         1         1         1         1
         1         1         1         1         1         1         1         1         1
         1         1         1         1         1         1         1         1         1
         1         1         1         1         1         1         1         1         1
         1         1         1         1         1         1         1         1         1
         1         1         1         1         1         1         1         1         1
         1         1         1         1         1         1         1         1         1
         1         1         1         1         1         1         1         1         1
         1         1         1         1         1         1         1         1         1
         1         1         1         1         1         1         1         1         1
         1         1         1         1         1         1         1         1         1
         1         1         1         1         1         1         1         1         1
        -1        -1        -1        -1        -1        -1        -1        -1        -1
   -999.99
INTERNAL               1   (9E15.6) -1 #strt layer 1                  
   9.950000E+02   9.950000E+02   9.950000E+02   9.950000E+02   9.950000E+02   9.950000E+02   9.950000E+02   9.950000E+02   9.950000E+02
   1.001568E+03   1.001568E+03   1.001568E+03   1.001568E+03   1.001568E+03   1.001568E+03   1.001568E+03   1.001568E+03   1.001568E+03
   1.003072E+03   1.003072E+03   1.003072E+03   1.003072E+03   1.003072E+03   1.003072E+03   1.003072E+03   1.003072E+03   1.003072E+03
   1.004512E+03   1.004512E+03   1.004512E+03   1.004512E+03   1.004512E+03   1.004512E+03   1.004512E+03   1.004512E+03   1.004512E+03
   1.005888E+03   1.005888E+03   1.005888E+03   1.005888E+03   1.005888E+03   1.005888E+03   1.005888E+03   1.005888E+03   1.005888E+03
   1.007200E+03   1.007200E+03   1.007200E+03   1.007200E+03   1.007200E+03   1.007200E+03   1.007200E+03   1.007200E+03   1.007200E+03
   1.008448E+03   1.008448E+03   1.008448E+03   1.008448E+03   1.008448E+03   1.008448E+03   1.008448E+03   1.008448E+03   1.008448E+03
   1.009632E+03   1.009632E+03   1.009632E+03   1.009632E+03   1.009632E+03   1.009632E+03   1.009632E+03   1.009632E+03   1.009632E+03
   1.010752E+03   1.010752E+03   1.010752E+03   1.010752E+03   1.010752E+03   1.010752E+03   1.010752E+03   1.010752E+03   1.010752E+03
   1.011808E+03   1.011808E+03   1.011808E+03   1.011808E+03   1.011808E+03   1.011808E+03   1.011808E+03   1.011808E+03   1.011808E+03
   1.012800E+03   1.012800E+03   1.012800E+03   1.012800E+03   1.012800E+03   1.012800E+03   1.012800E+03   1.012800E+03   1.012800E+03
   1.013728E+03   1.013728E+03   1.013728E+03   1.013728E+03   1.013728E+03   1.013728E+03   1.013728E+03   1.013728E+03   1.013728E+03
   1.014592E+03   1.014592E+03   1.014592E+03   1.014592E+03   1.014592E+03   1.014592E+03   1.014592E+03   1.014592E+03   1.014592E+03
   1.015392E+03   1.015392E+03   1.015392E+03   1.015392E+03   1.015392E+03   1.015392E+03   1.015392E+03   1.015392E+03   1.015392E+03
   1.016128E+03   1.016128E+03   1.016128E+03   1.016128E+03   1.016128E+03   1.016128E+03   1.016128E+03   1.016128E+03   1.016128E+03
   1.016800E+03   1.016800E+03   1.016800E+03   1.016800E+03   1.016800E+03   1.016800E+03   1.016800E+03   1.016800E+03   1.016800E+03
   1.017408E+03   1.017408E+03   1.017408E+03   1.017408E+03   1.017408E+03   1.017408E+03   1.017408E+03   1.017408E+03   1.017408E+03
   1.017952E+03   1.017952E+03   1.017952E+03   1.017952E+03   1.017952E+03   1.017952E+03   1.017952E+03   1.017952E+03   1.017952E+03
   1.018432E+03   1.018432E+03   1.018432E+03   1.018432E+03   1.018432E+03   1.018432E+03   1.018432E+03   1.018432E+03   1.018432E+03
   1.018848E+03   1.018848E+03   1.018848E+03   1.018848E+03   1.018848E+03   1.018848E+03   1.018848E+03   1.018848E+03   1.018848E+03
   1.019200E+03   1.019200E+03   1.019200E+03   1.019200E+03   1.019200E+03   1.019200E+03   1.019200E+03   1.019200E+03   1.019200E+03
   1.019488E+03   1.019488E+03   1.019488E+03   1.019488E+03   1.019488E+03   1.019488E+03   1.019488E+03   1.019488E+03   1.019488E+03
   1.019712E+03   1.019712E+03   1.019712E+03   1.019712E+03   1.019712E+03   1.019712E+03   1.019712E+03   1.019712E+03   1.019712E+03
   1.019872E+03   1.019872E+03   1.019872E+03   1.019872E+03   1.019872E+03   1.019872E+03   1.019872E+03   1.019872E+03   1.019872E+03
   1.019968E+03   1.019968E+03   1.019968E+03   1.019968E+03   1.019968E+03   1.019968E+03   1.019968E+03   1.019968E+03   1.019968E+03
   1.020000E+03   1.020000E+03   1.020000E+03   1.020000E+03   1.020000E+03   1.020000E+03   1.020000E+03   1.020000E+03   1.020000E+03
   1.019968E+03   1.019968E+03   1.019968E+03   1.019968E+03   1.019968E+03   1.019968E+03   1.019968E+03   1.019968E+03   1.019968E+03
   1.019872E+03   1.019872E+03   1.019872E+03   1.019872E+03   1.019872E+03   1.019872E+03   1.019872E+03   1.019872E+03   1.019872E+03
   1.019712E+03   1.019712E+03   1.019712E+03   1.019712E+03   1.019712E+03   1.019712E+03   1.019712E+03   1.019712E+03   1.019712E+03
   1.019488E+03   1.019488E+03   1.019488E+03   1.019488E+03   1.019488E+03   1.019488E+03   1.019488E+03   1.019488E+03   1.019488E+03
   1.019200E+03   1.019200E+03   1.019200E+03   1.019200E+03   1.019200E+03   1.019200E+03   1.019200E+03   1.019200E+03   1.019200E+03
   1.018848E+03   1.018848E+03   1.018848E+03   1.018848E+03   1.018848E+03   1.018848E+03   1.018848E+03   1.018848E+03   1.018848E+03
   1.018432E+03   1.018432E+03   1.018432E+03   1.018432E+03   1.018432E+03   1.018432E+03   1.018432E+03   1.018432E+03   1.018432E+03
   1.017952E+03   1.017952E+03   1.017952E+03   1.017952E+03   1.017952E+03   1.017952E+03   1.017952E+03   1.017952E+03   1.017952E+03
   1.017408E+03   1.017408E+03   1.017408E+03   1.017408E+03   1.017408E+03   1.017408E+03   1.017408E+03   1.017408E+03   1.017408E+03
   1.016800E+03   1.016800E+03   1.016800E+03   1.016800E+03   1.016800E+03   1.016800E+03   1.016800E+03   1.016800E+03   1.016800E+03
   1.016128E+03   1.016128E+03   1.016128E+03   1.016128E+03   1.016128E+03   1.016128E+03   1.016128E+03   1.016128E+03   1.016128E+03
   1.015392E+03   1.015392E+03   1.015392E+03   1.015392E+03   1.015392E+03   1.015392E+03   1.015392E+03   1.015392E+03   1.015392E+03
   1.014592E+03   1.014592E+03   1.014592E+03   1.014592E+03   1.014592E+03   1.014592E+03   1.014592E+03   1.014592E+03   1.014592E+03
   1.013728E+03   1.013728E+03   1.013728E+03   1.013728E+03   1.013728E+03   1.013728E+03   1.013728E+03   1.013728E+03   1.013728E+03
   1.012800E+03   1.012800E+03   1.012800E+03   1.012800E+03   1.012800E+03   1.012800E+03   1.012800E+03   1.012800E+03   1.012800E+03
   1.011808E+03   1.011808E+03   1.011808E+03   1.011808E+03   1.011808E+03   1.011808E+03   1.011808E+03   1.011808E+03   1.011808E+03
   1.010752E+03   1.010752E+03   1.010752E+03   1.010752E+03   1.010752E+03   1.010752E+03   1.010752E+03   1.010752E+03   1.010752E+03
   1.009632E+03   1.009632E+03   1.009632E+03   1.009632E+03   1.009632E+03   1.009632E+03   1.009632E+03   1.009632E+03   1.009632E+03
   1.008448E+03   1.008448E+03   1.008448E+03   1.008448E+03   1.008448E+03   1.008448E+03   1.008448E+03   1.008448E+03   1.008448E+03
   1.007200E+03   1.007200E+03   1.007200E+03   1.007200E+03   1.007200E+03   1.007200E+03   1.007200E+03   1.007200E+03   1.007200E+03
   1.005888E+03   1.005888E+03   1.005888E+03   1.005888E+03   1.005888E+03   1.005888E+03   1.005888E+03   1.005888E+03   1.005888E+03
   1.004512E+03   1.004512E+03   1.004512E+03   1.004512E+03   1.004512E+03   1.004512E+03   1.004512E+03   1.004512E+03   1.004512E+03
   1.003072E+03   1.003072E+03   1.003072E+03   1.003072E+03   1.003072E+03   1.003072E+03   1.003072E+03   1.003072E+03   1.003072E+03
   1.000000E+03   1.000000E+03   1.000000E+03   1.000000E+03   1.000000E+03   1.000000E+03   1.000000E+03   1.000000E+03   1.000000E+03
